* Copyright © 2000 Linear Technology Corporation.   All rights reserved.
*
*

.model 2n3904 npn(is=6.734f bf=416.4 br=0.737 nc=2 isc=6.734f ikf=66.78m xtf=1.604 vtf=1.7 xtb=1.5 eg=1.11 rc=1 cjc=3.638p mjc=0.3085 vjc=0.75 fc=0.5 cje=4.493p mje=0.2593 vje=0.75 tr=239.5n tf=301.2p itf=0.4 vtf=4 rb=10)


.model 2N3906 PNP(IS=1E-14 VAF=100
+  BF=200 IKF=0.4 XTB=1.5 BR=4
+  CJC=4.5E-12 CJE=10E-12 RB=20 RC=0.1 RE=0.1
+  TR=250E-9   TF=350E-12 ITF=1 VTF=2 XTF=3 Vceo=40  Icrating=200m mfg=Philips)
